Version 4
SHEET 1 1148 680
WIRE 512 16 464 16
WIRE 704 16 592 16
WIRE 256 144 64 144
WIRE 368 144 256 144
WIRE 464 144 464 16
WIRE 464 144 448 144
WIRE 496 144 464 144
WIRE 704 160 704 16
WIRE 704 160 608 160
WIRE 736 160 704 160
WIRE 752 160 736 160
WIRE 496 176 464 176
WIRE 64 192 64 144
WIRE 464 224 464 176
FLAG 64 272 0
FLAG 256 144 Vi
FLAG 736 160 Vo
FLAG 464 224 0
SYMBOL base 544 160 R0
SYMATTR InstName X1
SYMBOL Voltage 64 176 R0
WINDOW 123 24 118 Left 2
WINDOW 3 24 38 Left 2
SYMATTR Value2 AC 1m 0
SYMATTR Value SINE(0 0.2 500 0 0 0 100)
SYMATTR InstName V1
SYMBOL Res 464 128 R90
WINDOW 0 0 56 VBottom 2
WINDOW 3 32 56 VTop 2
SYMATTR InstName R1
SYMATTR Value 100
SYMBOL Res 608 0 R90
WINDOW 0 0 56 VBottom 2
WINDOW 3 32 56 VTop 2
SYMATTR InstName R2
SYMATTR Value 200
TEXT 336 320 Left 2 !.model 2N3904Custom AKO: 2N3904 (Bf=200)\n.model 2N3906Custom AKO: 2N3906 (Bf=100)
TEXT 336 384 Left 2 !*.ac dec 40 1 30Meg\n.tran 100u 10m\n*.op
