Version 4
SHEET 1 1292 680
WIRE 0 144 -384 144
WIRE 112 144 64 144
WIRE 208 144 112 144
WIRE 288 144 208 144
WIRE 112 176 112 144
WIRE -384 192 -384 144
WIRE 288 288 288 144
WIRE 336 288 288 288
WIRE 512 304 448 304
WIRE 560 304 512 304
WIRE -64 320 -384 320
WIRE 112 320 0 320
WIRE 208 320 112 320
WIRE 336 320 208 320
WIRE -384 352 -384 320
WIRE 112 352 112 320
FLAG -384 432 0
FLAG -384 272 0
FLAG 208 320 Vip
FLAG 208 144 Vin
FLAG 512 304 Vo
FLAG 112 256 0
FLAG 112 432 0
SYMBOL base 384 304 R0
SYMATTR InstName X1
SYMBOL Voltage -384 176 R0
WINDOW 123 24 118 Left 2
WINDOW 3 24 38 Left 2
SYMATTR Value2 AC 1m 0
SYMATTR Value SINE(0 0.2m 10k 0 0 0 100)
SYMATTR InstName V1
SYMBOL Voltage -384 336 R0
WINDOW 123 24 38 Left 2
WINDOW 3 24 60 Left 2
SYMATTR Value2 AC 1m 180
SYMATTR Value SINE(0 0.2m 10k 0 0 180 100)
SYMATTR InstName V2
SYMBOL Cap 64 128 R90
WINDOW 0 0 32 VBottom 2
WINDOW 3 32 32 VTop 2
SYMATTR InstName C1
SYMATTR Value 1”
SYMBOL Cap 0 304 R90
WINDOW 0 0 32 VBottom 2
WINDOW 3 32 32 VTop 2
SYMATTR InstName C2
SYMATTR Value 1”
SYMBOL Voltage 112 160 R0
WINDOW 39 24 118 Left 2
SYMATTR SpiceLine Rser=2.5k
SYMATTR InstName Vbn
SYMATTR Value 30m
SYMBOL Voltage 112 336 R0
WINDOW 39 24 118 Left 2
SYMATTR SpiceLine Rser=11k
SYMATTR InstName Vbp
SYMATTR Value 76m
TEXT 776 440 Left 2 !.model 2N3904Custom AKO: 2N3904 (Bf=200)\n.model 2N3906Custom AKO: 2N3906 (Bf=100)
TEXT 768 504 Left 2 !*.ac dec 40 1 30Meg\n*.tran 10u 0.3m\n.op\n*.dc Vbp -100m 100m 1m
